10466307
  -OEChem-04032411223D

 32 33  0     1  0  0  0  0  0999 V2000
   -0.4932   -2.2867   -0.6571 O   0  0  0  0  0  0  0  0  0  0  0  0
   -2.3757    2.4722    0.5840 O   0  0  0  0  0  0  0  0  0  0  0  0
   -0.8568   -2.3336    1.6746 O   0  0  0  0  0  0  0  0  0  0  0  0
    2.7103    0.7743    0.7219 O   0  0  0  0  0  0  0  0  0  0  0  0
    3.1083   -0.2712   -1.3049 O   0  0  0  0  0  0  0  0  0  0  0  0
   -1.3887   -0.2936    0.5188 C   0  0  1  0  0  0  0  0  0  0  0  0
    0.0128    0.3647    0.5329 C   0  0  2  0  0  0  0  0  0  0  0  0
   -2.1041    0.3957   -0.6573 C   0  0  2  0  0  0  0  0  0  0  0  0
   -1.6680    1.8530   -0.4850 C   0  0  2  0  0  0  0  0  0  0  0  0
   -0.1853    1.7521   -0.1255 C   0  0  0  0  0  0  0  0  0  0  0  0
   -1.3171   -1.8224    0.4204 C   0  0  1  0  0  0  0  0  0  0  0  0
    1.0206   -0.4732   -0.2008 C   0  0  0  0  0  0  0  0  0  0  0  0
   -3.6150    0.2018   -0.6443 C   0  0  0  0  0  0  0  0  0  0  0  0
    0.7212   -1.6570   -0.7469 C   0  0  0  0  0  0  0  0  0  0  0  0
    2.3970    0.0044   -0.3512 C   0  0  0  0  0  0  0  0  0  0  0  0
    4.0337    1.3196    0.7204 C   0  0  0  0  0  0  0  0  0  0  0  0
   -1.8973   -0.0269    1.4570 H   0  0  0  0  0  0  0  0  0  0  0  0
    0.3337    0.4860    1.5753 H   0  0  0  0  0  0  0  0  0  0  0  0
   -1.7108    0.0191   -1.6108 H   0  0  0  0  0  0  0  0  0  0  0  0
   -1.8356    2.4421   -1.3921 H   0  0  0  0  0  0  0  0  0  0  0  0
    0.1237    2.5479    0.5614 H   0  0  0  0  0  0  0  0  0  0  0  0
    0.4145    1.8491   -1.0383 H   0  0  0  0  0  0  0  0  0  0  0  0
   -2.3145   -2.2433    0.2641 H   0  0  0  0  0  0  0  0  0  0  0  0
   -4.0545    0.4731    0.3211 H   0  0  0  0  0  0  0  0  0  0  0  0
   -4.0873    0.8171   -1.4172 H   0  0  0  0  0  0  0  0  0  0  0  0
   -3.8747   -0.8421   -0.8458 H   0  0  0  0  0  0  0  0  0  0  0  0
    1.4003   -2.2564   -1.3384 H   0  0  0  0  0  0  0  0  0  0  0  0
   -2.0391    3.3805    0.6689 H   0  0  0  0  0  0  0  0  0  0  0  0
   -0.1885   -1.7308    2.0387 H   0  0  0  0  0  0  0  0  0  0  0  0
    4.1580    1.9123    1.6306 H   0  0  0  0  0  0  0  0  0  0  0  0
    4.1724    1.9730   -0.1462 H   0  0  0  0  0  0  0  0  0  0  0  0
    4.7749    0.5148    0.7208 H   0  0  0  0  0  0  0  0  0  0  0  0
  1 11  1  0  0  0  0
  1 14  1  0  0  0  0
  2  9  1  0  0  0  0
  2 28  1  0  0  0  0
  3 11  1  0  0  0  0
  3 29  1  0  0  0  0
  4 15  1  0  0  0  0
  4 16  1  0  0  0  0
  5 15  2  0  0  0  0
  6  7  1  0  0  0  0
  6  8  1  0  0  0  0
  6 11  1  0  0  0  0
  6 17  1  0  0  0  0
  7 10  1  0  0  0  0
  7 12  1  0  0  0  0
  7 18  1  0  0  0  0
  8  9  1  0  0  0  0
  8 13  1  0  0  0  0
  8 19  1  0  0  0  0
  9 10  1  0  0  0  0
  9 20  1  0  0  0  0
 10 21  1  0  0  0  0
 10 22  1  0  0  0  0
 11 23  1  0  0  0  0
 12 14  2  0  0  0  0
 12 15  1  0  0  0  0
 13 24  1  0  0  0  0
 13 25  1  0  0  0  0
 13 26  1  0  0  0  0
 14 27  1  0  0  0  0
 16 30  1  0  0  0  0
 16 31  1  0  0  0  0
 16 32  1  0  0  0  0
M  END
> <PUBCHEM_COMPOUND_CID>
10466307

> <PUBCHEM_CONFORMER_RMSD>
0.6

> <PUBCHEM_CONFORMER_DIVERSEORDER>
1
8
6
4
7
2
3
5

> <PUBCHEM_MMFF94_PARTIAL_CHARGES>
15
1 -0.36
11 0.56
12 -0.12
14 -0.07
15 0.71
16 0.28
2 -0.68
27 0.15
28 0.4
29 0.4
3 -0.68
4 -0.43
5 -0.57
7 0.14
9 0.28

> <PUBCHEM_EFFECTIVE_ROTOR_COUNT>
3

> <PUBCHEM_PHARMACOPHORE_FEATURES>
8
1 1 acceptor
1 2 acceptor
1 2 donor
1 3 acceptor
1 3 donor
1 5 acceptor
5 6 7 8 9 10 rings
6 1 6 7 11 12 14 rings

> <PUBCHEM_HEAVY_ATOM_COUNT>
16

> <PUBCHEM_ATOM_DEF_STEREO_COUNT>
5

> <PUBCHEM_ATOM_UDEF_STEREO_COUNT>
0

> <PUBCHEM_BOND_DEF_STEREO_COUNT>
0

> <PUBCHEM_BOND_UDEF_STEREO_COUNT>
0

> <PUBCHEM_ISOTOPIC_ATOM_COUNT>
0

> <PUBCHEM_COMPONENT_COUNT>
1

> <PUBCHEM_CACTVS_TAUTO_COUNT>
1

> <PUBCHEM_CONFORMER_ID>
009FB40300000001

> <PUBCHEM_MMFF94_ENERGY>
42.16

> <PUBCHEM_FEATURE_SELFOVERLAP>
40.807

> <PUBCHEM_SHAPE_FINGERPRINT>
11132069 177 18410293631535855101
12138202 97 18338220665598919918
12423570 1 10513725198269483681
12716758 59 18335707121999148954
13024252 1 17677320744439481842
13140716 1 18121222244800135185
13380535 76 18410287004142815490
13538477 17 17676490596391884050
13764800 53 18335989756564112994
14614273 12 18116983408606020893
14817 1 12566908758634687438
15490181 7 17831298303051413085
15852999 172 18260544498281388895
16945 1 18333739034634251253
17846911 113 18410564106763840465
18186145 218 18199467671130605940
18534176 82 18261125096297607983
20510252 161 18272369767418704881
20645476 183 17530688727087344054
20871998 184 18268713977065628198
21501502 16 18124033429791683191
21524375 3 18264488382049764238
22344851 341 18049721824137427259
22802520 49 18271540701444350774
2334 1 17761496189397618413
23402539 116 18338497729675885709
23419403 2 15909082970801474211
23493267 7 18114479902302278098
23552423 10 17831297199381565397
23557571 272 18195252341502894988
23559900 14 18410575089828406534
25 1 17980774739651458756
2748010 2 18339092479377275430
305870 269 17898282797356037464
3071541 236 18113616819601689307
353137 74 18336816495130293029
57003041 12 18269562650146047993
6333449 129 18340482369559755720
7364860 26 17691962670287959831
81228 2 18262807383405385843

> <PUBCHEM_SHAPE_MULTIPOLES>
299.93
5.01
2.47
1.08
3.33
0.32
-0.11
-2.34
0.24
-1.11
-0.41
0.14
0.36
0.62

> <PUBCHEM_SHAPE_SELFOVERLAP>
629.146

> <PUBCHEM_SHAPE_VOLUME>
168.2

> <PUBCHEM_COORDINATE_TYPE>
2
5
10

$$$$
161313
  -OEChem-04032411163D

 38 40  0     1  0  0  0  0  0999 V2000
    3.3801    0.7215    0.7360 N   0  0  1  0  0  0  0  0  0  0  0  0
   -0.9994    0.6960   -1.0743 N   0  0  0  0  0  0  0  0  0  0  0  0
   -5.0003   -1.1975    0.5998 N   0  0  0  0  0  0  0  0  0  0  0  0
    2.7010    0.1292   -0.4460 C   0  0  1  0  0  0  0  0  0  0  0  0
    3.2349   -1.2902   -0.7532 C   0  0  0  0  0  0  0  0  0  0  0  0
    4.7498   -1.3094   -0.9016 C   0  0  0  0  0  0  0  0  0  0  0  0
    5.3977   -0.6843    0.3236 C   0  0  0  0  0  0  0  0  0  0  0  0
    4.8459    0.7166    0.5741 C   0  0  0  0  0  0  0  0  0  0  0  0
    1.1817    0.0553   -0.2851 C   0  0  0  0  0  0  0  0  0  0  0  0
    2.9415    2.1014    0.9872 C   0  0  0  0  0  0  0  0  0  0  0  0
    0.6187   -0.6800    0.7430 C   0  0  0  0  0  0  0  0  0  0  0  0
    0.3496    0.7200   -1.1609 C   0  0  0  0  0  0  0  0  0  0  0  0
   -0.7656   -0.7287    0.8649 C   0  0  0  0  0  0  0  0  0  0  0  0
   -1.5232   -0.0296   -0.0610 C   0  0  0  0  0  0  0  0  0  0  0  0
   -2.9655   -0.0365    0.0026 C   0  0  0  0  0  0  0  0  0  0  0  0
   -3.7085    1.0503   -0.4450 C   0  0  0  0  0  0  0  0  0  0  0  0
   -3.6531   -1.1264    0.5117 C   0  0  0  0  0  0  0  0  0  0  0  0
   -5.0966    1.0145   -0.3708 C   0  0  0  0  0  0  0  0  0  0  0  0
   -5.6887   -0.1224    0.1550 C   0  0  0  0  0  0  0  0  0  0  0  0
    2.9256    0.7564   -1.3215 H   0  0  0  0  0  0  0  0  0  0  0  0
    2.7777   -1.6708   -1.6756 H   0  0  0  0  0  0  0  0  0  0  0  0
    2.9585   -1.9940    0.0425 H   0  0  0  0  0  0  0  0  0  0  0  0
    5.0407   -0.7532   -1.8010 H   0  0  0  0  0  0  0  0  0  0  0  0
    5.1022   -2.3387   -1.0300 H   0  0  0  0  0  0  0  0  0  0  0  0
    5.2175   -1.3166    1.2021 H   0  0  0  0  0  0  0  0  0  0  0  0
    6.4832   -0.6342    0.1822 H   0  0  0  0  0  0  0  0  0  0  0  0
    5.3166    1.1051    1.4857 H   0  0  0  0  0  0  0  0  0  0  0  0
    5.1451    1.3766   -0.2514 H   0  0  0  0  0  0  0  0  0  0  0  0
    3.1212    2.7543    0.1253 H   0  0  0  0  0  0  0  0  0  0  0  0
    3.4705    2.5208    1.8509 H   0  0  0  0  0  0  0  0  0  0  0  0
    1.8773    2.1448    1.2404 H   0  0  0  0  0  0  0  0  0  0  0  0
    1.2327   -1.2094    1.4655 H   0  0  0  0  0  0  0  0  0  0  0  0
    0.7388    1.3110   -1.9835 H   0  0  0  0  0  0  0  0  0  0  0  0
   -1.1974   -1.2876    1.6881 H   0  0  0  0  0  0  0  0  0  0  0  0
   -3.2352    1.9426   -0.8469 H   0  0  0  0  0  0  0  0  0  0  0  0
   -3.1555   -2.0260    0.8604 H   0  0  0  0  0  0  0  0  0  0  0  0
   -5.6961    1.8509   -0.7114 H   0  0  0  0  0  0  0  0  0  0  0  0
   -6.7680   -0.1997    0.2354 H   0  0  0  0  0  0  0  0  0  0  0  0
  1  4  1  0  0  0  0
  1  8  1  0  0  0  0
  1 10  1  0  0  0  0
  2 12  1  0  0  0  0
  2 14  2  0  0  0  0
  3 17  1  0  0  0  0
  3 19  2  0  0  0  0
  4  5  1  0  0  0  0
  4  9  1  0  0  0  0
  4 20  1  0  0  0  0
  5  6  1  0  0  0  0
  5 21  1  0  0  0  0
  5 22  1  0  0  0  0
  6  7  1  0  0  0  0
  6 23  1  0  0  0  0
  6 24  1  0  0  0  0
  7  8  1  0  0  0  0
  7 25  1  0  0  0  0
  7 26  1  0  0  0  0
  8 27  1  0  0  0  0
  8 28  1  0  0  0  0
  9 11  1  0  0  0  0
  9 12  2  0  0  0  0
 10 29  1  0  0  0  0
 10 30  1  0  0  0  0
 10 31  1  0  0  0  0
 11 13  2  0  0  0  0
 11 32  1  0  0  0  0
 12 33  1  0  0  0  0
 13 14  1  0  0  0  0
 13 34  1  0  0  0  0
 14 15  1  0  0  0  0
 15 16  1  0  0  0  0
 15 17  2  0  0  0  0
 16 18  2  0  0  0  0
 16 35  1  0  0  0  0
 17 36  1  0  0  0  0
 18 19  1  0  0  0  0
 18 37  1  0  0  0  0
 19 38  1  0  0  0  0
M  END
> <PUBCHEM_COMPOUND_CID>
161313

> <PUBCHEM_CONFORMER_RMSD>
0.6

> <PUBCHEM_CONFORMER_DIVERSEORDER>
2
15
25
49
36
55
1
33
11
41
18
54
31
13
37
39
14
35
57
27
46
28
9
16
30
43
4
32
52
3
19
10
40
29
58
21
47
7
20
38
53
12
22
23
42
17
26
48
44
24
34
6
50
8
51
56
45
5

> <PUBCHEM_MMFF94_PARTIAL_CHARGES>
22
1 -0.81
10 0.27
11 -0.15
12 0.16
13 -0.15
14 0.31
16 -0.15
17 0.16
18 -0.15
19 0.16
2 -0.62
3 -0.62
32 0.15
33 0.15
34 0.15
35 0.15
36 0.15
37 0.15
38 0.15
4 0.41
8 0.27
9 -0.14

> <PUBCHEM_EFFECTIVE_ROTOR_COUNT>
3.2

> <PUBCHEM_PHARMACOPHORE_FEATURES>
6
1 1 cation
1 2 acceptor
1 3 acceptor
6 1 4 5 6 7 8 rings
6 2 9 11 12 13 14 rings
6 3 15 16 17 18 19 rings

> <PUBCHEM_HEAVY_ATOM_COUNT>
19

> <PUBCHEM_ATOM_DEF_STEREO_COUNT>
0

> <PUBCHEM_ATOM_UDEF_STEREO_COUNT>
1

> <PUBCHEM_BOND_DEF_STEREO_COUNT>
0

> <PUBCHEM_BOND_UDEF_STEREO_COUNT>
0

> <PUBCHEM_ISOTOPIC_ATOM_COUNT>
0

> <PUBCHEM_COMPONENT_COUNT>
1

> <PUBCHEM_CACTVS_TAUTO_COUNT>
1

> <PUBCHEM_CONFORMER_ID>
0002762100000002

> <PUBCHEM_MMFF94_ENERGY>
48.4045

> <PUBCHEM_FEATURE_SELFOVERLAP>
30.446

> <PUBCHEM_SHAPE_FINGERPRINT>
10090160 65 16486977267081338878
11045977 3 18410291440960122537
11287383 113 18343865532425995123
11401426 45 17967250897206759863
11405975 8 18343585161366649547
12107183 9 17196873470753002131
12236239 1 15357696375163454788
12403259 415 18259977180367502069
12507560 40 18342175570359196605
12616971 3 17060615616170732181
12670546 56 17489308551193985458
13167372 99 17489596614914636385
13533116 47 15984828091290819846
13544592 145 18409736140496819278
13583140 156 17846213427274025759
13675066 3 18408605894071984463
13760787 5 16487255465177239701
13862211 1 17458061573241611747
1420 363 18334298669226510419
14251764 18 17967526883790195058
14341114 176 18272374178297064776
14573314 32 18410857633418614933
15788980 27 17989485221185325727
17349148 13 16950284013890418835
17834072 33 17917706928860230679
17844677 252 18272657839681303865
18186145 218 18187357731639961101
18222031 100 17167859802895486205
18785283 64 18267859674402383792
19026448 4 18342176674186617743
19141452 34 18411418444689787295
19433438 28 18409165519752640081
19489759 90 18259702290155527921
200 152 17632576024315619555
20645477 70 17989211408652259238
21033648 29 18200578246831623985
21065201 7 18113333124427346147
21267235 1 17822020826437752371
23402539 116 18113896061422213887
23536379 177 17917430895802191243
23557571 272 18041001687622359925
23559900 14 18410855477429538848
23622692 88 17203608186264173148
239999 70 18412267220954501038
26918003 58 18202002131236757139
351380 180 18272649047603622137
3545911 37 18059857289894530032
4214541 1 18409449168088180485
4340502 62 17703790331727412502
4990 188 18335143063822969382
5104073 3 18408044030708567905
542803 24 14923945635017612615
59755656 215 18186800240774952995
633830 44 18260259784888501735
7495541 125 18409730673119034764
8272917 22 17703794708694271302
9971528 1 18187085074289313636

> <PUBCHEM_SHAPE_MULTIPOLES>
376.07
13.13
1.46
1.04
4.16
0.29
0.06
-1.19
-0.77
-0.76
-0.16
-0.36
0.06
1.41

> <PUBCHEM_SHAPE_SELFOVERLAP>
806.76

> <PUBCHEM_SHAPE_VOLUME>
204.4

> <PUBCHEM_COORDINATE_TYPE>
2
5
10

$$$$
5280343
  -OEChem-04032411233D

 32 34  0     0  0  0  0  0  0999 V2000
   -0.3256   -0.8658   -0.1246 O   0  0  0  0  0  0  0  0  0  0  0  0
    0.7320    2.6650   -0.0692 O   0  0  0  0  0  0  0  0  0  0  0  0
   -4.4111    1.7247    0.1690 O   0  0  0  0  0  0  0  0  0  0  0  0
   -2.0405    2.8247    0.0849 O   0  0  0  0  0  0  0  0  0  0  0  0
   -4.5541   -3.0185    0.0059 O   0  0  0  0  0  0  0  0  0  0  0  0
    4.7260   -0.5543    2.0391 O   0  0  0  0  0  0  0  0  0  0  0  0
    5.9621   -0.7455   -0.4423 O   0  0  0  0  0  0  0  0  0  0  0  0
   -2.3363    0.4858    0.0234 C   0  0  0  0  0  0  0  0  0  0  0  0
   -1.6894   -0.7456   -0.0524 C   0  0  0  0  0  0  0  0  0  0  0  0
    0.4417    0.2883   -0.1097 C   0  0  0  0  0  0  0  0  0  0  0  0
    1.8880    0.0180   -0.1934 C   0  0  0  0  0  0  0  0  0  0  0  0
   -0.0582    1.5360   -0.0489 C   0  0  0  0  0  0  0  0  0  0  0  0
   -1.5283    1.7149    0.0259 C   0  0  0  0  0  0  0  0  0  0  0  0
   -3.7304    0.5474    0.0939 C   0  0  0  0  0  0  0  0  0  0  0  0
   -2.4335   -1.9257   -0.0588 C   0  0  0  0  0  0  0  0  0  0  0  0
   -3.8256   -1.8685    0.0117 C   0  0  0  0  0  0  0  0  0  0  0  0
    2.6365   -0.1435    0.9728 C   0  0  0  0  0  0  0  0  0  0  0  0
   -4.4724   -0.6343    0.0880 C   0  0  0  0  0  0  0  0  0  0  0  0
    2.5093   -0.0766   -1.4389 C   0  0  0  0  0  0  0  0  0  0  0  0
    4.0054   -0.3998    0.8936 C   0  0  0  0  0  0  0  0  0  0  0  0
    3.8783   -0.3325   -1.5181 C   0  0  0  0  0  0  0  0  0  0  0  0
    4.6263   -0.4943   -0.3518 C   0  0  0  0  0  0  0  0  0  0  0  0
   -1.9319   -2.8883   -0.1184 H   0  0  0  0  0  0  0  0  0  0  0  0
    2.1602   -0.0715    1.9482 H   0  0  0  0  0  0  0  0  0  0  0  0
   -5.5576   -0.5880    0.1428 H   0  0  0  0  0  0  0  0  0  0  0  0
    1.9395    0.0465   -2.3567 H   0  0  0  0  0  0  0  0  0  0  0  0
    4.3560   -0.4053   -2.4914 H   0  0  0  0  0  0  0  0  0  0  0  0
    1.6675    2.4118   -0.1228 H   0  0  0  0  0  0  0  0  0  0  0  0
   -3.7963    2.4741    0.1701 H   0  0  0  0  0  0  0  0  0  0  0  0
   -5.4988   -2.7937    0.0605 H   0  0  0  0  0  0  0  0  0  0  0  0
    5.6637   -0.3751    1.8626 H   0  0  0  0  0  0  0  0  0  0  0  0
    6.2712   -1.1700    0.3741 H   0  0  0  0  0  0  0  0  0  0  0  0
  1  9  1  0  0  0  0
  1 10  1  0  0  0  0
  2 12  1  0  0  0  0
  2 28  1  0  0  0  0
  3 14  1  0  0  0  0
  3 29  1  0  0  0  0
  4 13  2  0  0  0  0
  5 16  1  0  0  0  0
  5 30  1  0  0  0  0
  6 20  1  0  0  0  0
  6 31  1  0  0  0  0
  7 22  1  0  0  0  0
  7 32  1  0  0  0  0
  8  9  1  0  0  0  0
  8 13  1  0  0  0  0
  8 14  2  0  0  0  0
  9 15  2  0  0  0  0
 10 11  1  0  0  0  0
 10 12  2  0  0  0  0
 11 17  2  0  0  0  0
 11 19  1  0  0  0  0
 12 13  1  0  0  0  0
 14 18  1  0  0  0  0
 15 16  1  0  0  0  0
 15 23  1  0  0  0  0
 16 18  2  0  0  0  0
 17 20  1  0  0  0  0
 17 24  1  0  0  0  0
 18 25  1  0  0  0  0
 19 21  2  0  0  0  0
 19 26  1  0  0  0  0
 20 22  2  0  0  0  0
 21 22  1  0  0  0  0
 21 27  1  0  0  0  0
M  END
> <PUBCHEM_COMPOUND_CID>
5280343

> <PUBCHEM_CONFORMER_RMSD>
0.6

> <PUBCHEM_CONFORMER_DIVERSEORDER>
2
3
4
1

> <PUBCHEM_MMFF94_PARTIAL_CHARGES>
32
1 -0.16
10 0.05
11 0.03
12 0.09
13 0.47
14 0.08
15 -0.15
16 0.08
17 -0.15
18 -0.15
19 -0.15
2 -0.53
20 0.08
21 -0.15
22 0.08
23 0.15
24 0.15
25 0.15
26 0.15
27 0.15
28 0.45
29 0.45
3 -0.53
30 0.45
31 0.45
32 0.45
4 -0.57
5 -0.53
6 -0.53
7 -0.53
8 0.09
9 0.08

> <PUBCHEM_EFFECTIVE_ROTOR_COUNT>
1

> <PUBCHEM_PHARMACOPHORE_FEATURES>
10
1 1 acceptor
1 2 donor
1 3 donor
1 4 acceptor
1 5 donor
1 6 donor
1 7 donor
6 1 8 9 10 12 13 rings
6 11 17 19 20 21 22 rings
6 8 9 14 15 16 18 rings

> <PUBCHEM_HEAVY_ATOM_COUNT>
22

> <PUBCHEM_ATOM_DEF_STEREO_COUNT>
0

> <PUBCHEM_ATOM_UDEF_STEREO_COUNT>
0

> <PUBCHEM_BOND_DEF_STEREO_COUNT>
0

> <PUBCHEM_BOND_UDEF_STEREO_COUNT>
0

> <PUBCHEM_ISOTOPIC_ATOM_COUNT>
0

> <PUBCHEM_COMPONENT_COUNT>
1

> <PUBCHEM_CACTVS_TAUTO_COUNT>
435

> <PUBCHEM_CONFORMER_ID>
0050925700000002

> <PUBCHEM_MMFF94_ENERGY>
67.9013

> <PUBCHEM_FEATURE_SELFOVERLAP>
50.781

> <PUBCHEM_SHAPE_FINGERPRINT>
10062212 137 18187366532376097179
10319926 262 18198887155530876618
10411042 1 18267306624464364199
10616163 171 18411422791027885687
11045977 3 17988636389587437640
11046707 91 18409731781088721831
11132069 177 18342179934140791333
11370993 144 16773248296511877579
11552529 35 14260485002790182821
12107183 9 17540809500193799274
12236239 1 17821733810620706086
12363563 72 18339368581624426103
12553582 1 18408889555155666595
13140716 1 18340771541661452937
13288520 33 18411422821308590263
13675066 3 17775002409702089546
14386348 63 17846783983788497886
15042514 8 18410580587265310395
15099037 37 18343299271068437565
15196674 1 18411421755945834109
16752209 62 18334289868595986291
16945 1 18411422778686062261
17349148 13 17748826302436736570
17804303 29 18413671322582201833
1813 80 17458069226905034038
18186145 218 12612750207294412564
18222031 100 18270959167125326031
18681886 176 18336270124256880678
19141452 34 17775287205258622471
200 152 16660645137605500828
20028762 73 17986393510885979071
21033648 29 17131540674461138658
21065201 7 18342460283973285510
21267235 1 18337399322303363739
21728266 224 18261944198090091298
2297311 6 18342468031962295414
23366157 5 17970912403723827780
23402539 116 18410573976646049422
23557571 272 18129948871279935700
23559900 14 18200040530026961414
25147074 1 18264788703960466501
2838139 119 14691740792871930569
3004659 81 18186521037688015310
312423 11 18190191263647082733
335352 9 18410856577895734581
474 4 17096946861146042884
5104073 3 18340771541286848633
573450 72 18260825981905919954
59755656 215 18268151959405414926
602551 16 18413105061377832954
67856867 119 18188777270541336308
7495541 125 18131914871464346032
77492 1 17676776383674054532
7970288 3 18338799051639604983
9709674 26 18121220046008890539

> <PUBCHEM_SHAPE_MULTIPOLES>
411.66
10.99
2.34
1.06
6.01
0.56
0.11
-4.89
0.67
-3.56
0.02
1.76
-0.17
-0.17

> <PUBCHEM_SHAPE_SELFOVERLAP>
923.873

> <PUBCHEM_SHAPE_VOLUME>
216

> <PUBCHEM_COORDINATE_TYPE>
2
5
10

$$$$
5280863
  -OEChem-04032411203D

 31 33  0     0  0  0  0  0  0999 V2000
   -0.1128   -0.8909   -0.0017 O   0  0  0  0  0  0  0  0  0  0  0  0
    0.9956    2.6247   -0.0191 O   0  0  0  0  0  0  0  0  0  0  0  0
   -4.1670    1.7646    0.0025 O   0  0  0  0  0  0  0  0  0  0  0  0
   -1.7783    2.8281   -0.0053 O   0  0  0  0  0  0  0  0  0  0  0  0
   -4.3756   -2.9789   -0.0005 O   0  0  0  0  0  0  0  0  0  0  0  0
    6.1825   -0.8694   -0.0053 O   0  0  0  0  0  0  0  0  0  0  0  0
   -2.1071    0.4928    0.0012 C   0  0  0  0  0  0  0  0  0  0  0  0
   -1.4764   -0.7494    0.0002 C   0  0  0  0  0  0  0  0  0  0  0  0
    0.6707    0.2523    0.0098 C   0  0  0  0  0  0  0  0  0  0  0  0
   -1.2811    1.7099   -0.0003 C   0  0  0  0  0  0  0  0  0  0  0  0
    0.1879    1.5082    0.0025 C   0  0  0  0  0  0  0  0  0  0  0  0
    2.1150   -0.0408    0.0059 C   0  0  0  0  0  0  0  0  0  0  0  0
   -3.5018    0.5761    0.0019 C   0  0  0  0  0  0  0  0  0  0  0  0
   -2.2377   -1.9185   -0.0008 C   0  0  0  0  0  0  0  0  0  0  0  0
   -3.6304   -1.8396    0.0001 C   0  0  0  0  0  0  0  0  0  0  0  0
   -4.2610   -0.5947    0.0015 C   0  0  0  0  0  0  0  0  0  0  0  0
    2.8040   -0.1705    1.2120 C   0  0  0  0  0  0  0  0  0  0  0  0
    2.7935   -0.1896   -1.2039 C   0  0  0  0  0  0  0  0  0  0  0  0
    4.1709   -0.4487    1.2083 C   0  0  0  0  0  0  0  0  0  0  0  0
    4.1603   -0.4681   -1.2076 C   0  0  0  0  0  0  0  0  0  0  0  0
    4.8490   -0.5974   -0.0014 C   0  0  0  0  0  0  0  0  0  0  0  0
   -1.7487   -2.8895   -0.0022 H   0  0  0  0  0  0  0  0  0  0  0  0
   -5.3467   -0.5315    0.0020 H   0  0  0  0  0  0  0  0  0  0  0  0
    2.2887   -0.0578    2.1628 H   0  0  0  0  0  0  0  0  0  0  0  0
    2.2701   -0.0920   -2.1520 H   0  0  0  0  0  0  0  0  0  0  0  0
    4.6958   -0.5474    2.1548 H   0  0  0  0  0  0  0  0  0  0  0  0
    4.6831   -0.5832   -2.1531 H   0  0  0  0  0  0  0  0  0  0  0  0
    1.9285    2.3567   -0.0186 H   0  0  0  0  0  0  0  0  0  0  0  0
   -3.5413    2.5050    0.0071 H   0  0  0  0  0  0  0  0  0  0  0  0
   -5.3183   -2.7393    0.0003 H   0  0  0  0  0  0  0  0  0  0  0  0
    6.4954   -0.9249    0.9140 H   0  0  0  0  0  0  0  0  0  0  0  0
  1  8  1  0  0  0  0
  1  9  1  0  0  0  0
  2 11  1  0  0  0  0
  2 28  1  0  0  0  0
  3 13  1  0  0  0  0
  3 29  1  0  0  0  0
  4 10  2  0  0  0  0
  5 15  1  0  0  0  0
  5 30  1  0  0  0  0
  6 21  1  0  0  0  0
  6 31  1  0  0  0  0
  7  8  1  0  0  0  0
  7 10  1  0  0  0  0
  7 13  2  0  0  0  0
  8 14  2  0  0  0  0
  9 11  2  0  0  0  0
  9 12  1  0  0  0  0
 10 11  1  0  0  0  0
 12 17  2  0  0  0  0
 12 18  1  0  0  0  0
 13 16  1  0  0  0  0
 14 15  1  0  0  0  0
 14 22  1  0  0  0  0
 15 16  2  0  0  0  0
 16 23  1  0  0  0  0
 17 19  1  0  0  0  0
 17 24  1  0  0  0  0
 18 20  2  0  0  0  0
 18 25  1  0  0  0  0
 19 21  2  0  0  0  0
 19 26  1  0  0  0  0
 20 21  1  0  0  0  0
 20 27  1  0  0  0  0
M  END
> <PUBCHEM_COMPOUND_CID>
5280863

> <PUBCHEM_CONFORMER_RMSD>
0.6

> <PUBCHEM_CONFORMER_DIVERSEORDER>
1

> <PUBCHEM_MMFF94_PARTIAL_CHARGES>
31
1 -0.16
10 0.47
11 0.09
12 0.03
13 0.08
14 -0.15
15 0.08
16 -0.15
17 -0.15
18 -0.15
19 -0.15
2 -0.53
20 -0.15
21 0.08
22 0.15
23 0.15
24 0.15
25 0.15
26 0.15
27 0.15
28 0.45
29 0.45
3 -0.53
30 0.45
31 0.45
4 -0.57
5 -0.53
6 -0.53
7 0.09
8 0.08
9 0.05

> <PUBCHEM_EFFECTIVE_ROTOR_COUNT>
1

> <PUBCHEM_PHARMACOPHORE_FEATURES>
9
1 1 acceptor
1 2 donor
1 3 donor
1 4 acceptor
1 5 donor
1 6 donor
6 1 7 8 9 10 11 rings
6 12 17 18 19 20 21 rings
6 7 8 13 14 15 16 rings

> <PUBCHEM_HEAVY_ATOM_COUNT>
21

> <PUBCHEM_ATOM_DEF_STEREO_COUNT>
0

> <PUBCHEM_ATOM_UDEF_STEREO_COUNT>
0

> <PUBCHEM_BOND_DEF_STEREO_COUNT>
0

> <PUBCHEM_BOND_UDEF_STEREO_COUNT>
0

> <PUBCHEM_ISOTOPIC_ATOM_COUNT>
0

> <PUBCHEM_COMPONENT_COUNT>
1

> <PUBCHEM_CACTVS_TAUTO_COUNT>
126

> <PUBCHEM_CONFORMER_ID>
0050945F00000001

> <PUBCHEM_MMFF94_ENERGY>
63.6634

> <PUBCHEM_FEATURE_SELFOVERLAP>
45.701

> <PUBCHEM_SHAPE_FINGERPRINT>
10062212 137 18259704501815817475
10319926 262 18198039440708472114
10411042 1 18266459996136868551
10493431 412 18054800477274442545
10616163 171 18411139112664406262
11046707 91 18409730677123910171
11370993 144 16916517955761329203
11543360 7 15719391793172269227
12107183 9 17541371342140675274
12236239 1 17749392534061481470
12363563 72 18339086002704009255
12553582 1 18335417984827221099
13140716 1 18340488962783208193
13288520 33 18410856568303811111
13675066 3 17917989503163926634
13862211 1 18411135875018635839
14386348 63 17917994953962754494
14790565 3 17907586822313171969
15042514 8 18410016533441990531
15196674 1 18410575127634143204
15536298 74 18268991053969707425
16752209 62 18261663818488179675
16945 1 18410573947008695237
17492 89 17979916334999118719
17804303 29 18413387644160661329
18222031 100 18270674402272329287
19141452 34 17846780749752405951
200 152 16588024589466838308
20028762 73 17985829461378751375
21033648 29 17203314598809963442
21065201 7 18341611465349671010
21267235 1 18408891762974708547
221490 88 18191593162225813571
2297311 6 18341902883091139510
23366157 5 17970347246368186860
23402539 116 18409726249144594518
23557571 272 18201721691948635868
23559900 14 18271250400689538198
25147074 1 18264787600074730613
2748010 2 18267295620510030677
3004659 81 18113614624936730478
312423 11 18190190164135409397
335352 9 18410291424544975637
4214541 1 18410855451569901696
474 4 17024325213363864316
5104073 3 18342177807789199753
559249 180 18261388901826549970
573450 72 18260823774456318682
59755656 215 18267868281237107870
602551 16 18412822482673668010
67856867 119 18260834856110609924
7364860 26 18054791946941650728
7495541 125 18130786776881943360
77492 1 17676211226149614980
7970288 3 18338515373228633302
8863177 126 17536044590725800739
9709674 26 18120654892652843899

> <PUBCHEM_SHAPE_MULTIPOLES>
396.95
10.55
2.4
0.89
7.48
0.59
0
-4.96
0.01
-3.3
-0.01
1.05
-0.1
0.01

> <PUBCHEM_SHAPE_SELFOVERLAP>
889.871

> <PUBCHEM_SHAPE_VOLUME>
208.9

> <PUBCHEM_COORDINATE_TYPE>
2
5
10

$$$$
5281426
  -OEChem-04032411243D

 18 19  0     0  0  0  0  0  0999 V2000
   -1.1951    1.1738   -0.0006 O   0  0  0  0  0  0  0  0  0  0  0  0
    3.5888    1.1462    0.0005 O   0  0  0  0  0  0  0  0  0  0  0  0
   -3.4855    1.1684    0.0010 O   0  0  0  0  0  0  0  0  0  0  0  0
   -0.0069   -0.9506   -0.0001 C   0  0  0  0  0  0  0  0  0  0  0  0
    0.0098    0.4417   -0.0003 C   0  0  0  0  0  0  0  0  0  0  0  0
    1.2077   -1.6402    0.0000 C   0  0  0  0  0  0  0  0  0  0  0  0
    1.2035    1.1605   -0.0003 C   0  0  0  0  0  0  0  0  0  0  0  0
   -1.2880   -1.6360    0.0001 C   0  0  0  0  0  0  0  0  0  0  0  0
    2.4105    0.4648    0.0001 C   0  0  0  0  0  0  0  0  0  0  0  0
    2.4130   -0.9321    0.0001 C   0  0  0  0  0  0  0  0  0  0  0  0
   -2.4248   -0.9355    0.0001 C   0  0  0  0  0  0  0  0  0  0  0  0
   -2.4331    0.5392   -0.0006 C   0  0  0  0  0  0  0  0  0  0  0  0
    1.2315   -2.7271    0.0002 H   0  0  0  0  0  0  0  0  0  0  0  0
    1.1937    2.2465   -0.0004 H   0  0  0  0  0  0  0  0  0  0  0  0
   -1.3051   -2.7203    0.0005 H   0  0  0  0  0  0  0  0  0  0  0  0
    3.3500   -1.4832    0.0003 H   0  0  0  0  0  0  0  0  0  0  0  0
   -3.3848   -1.4401    0.0004 H   0  0  0  0  0  0  0  0  0  0  0  0
    4.3223    0.5073    0.0008 H   0  0  0  0  0  0  0  0  0  0  0  0
  1  5  1  0  0  0  0
  1 12  1  0  0  0  0
  2  9  1  0  0  0  0
  2 18  1  0  0  0  0
  3 12  2  0  0  0  0
  4  5  2  0  0  0  0
  4  6  1  0  0  0  0
  4  8  1  0  0  0  0
  5  7  1  0  0  0  0
  6 10  2  0  0  0  0
  6 13  1  0  0  0  0
  7  9  2  0  0  0  0
  7 14  1  0  0  0  0
  8 11  2  0  0  0  0
  8 15  1  0  0  0  0
  9 10  1  0  0  0  0
 10 16  1  0  0  0  0
 11 12  1  0  0  0  0
 11 17  1  0  0  0  0
M  END
> <PUBCHEM_COMPOUND_CID>
5281426

> <PUBCHEM_CONFORMER_RMSD>
0.4

> <PUBCHEM_CONFORMER_DIVERSEORDER>
1

> <PUBCHEM_MMFF94_PARTIAL_CHARGES>
18
1 -0.23
10 -0.15
11 -0.14
12 0.71
13 0.15
14 0.15
15 0.15
16 0.15
17 0.15
18 0.45
2 -0.53
3 -0.57
4 0.03
5 0.08
6 -0.15
7 -0.15
8 -0.18
9 0.08

> <PUBCHEM_EFFECTIVE_ROTOR_COUNT>
0

> <PUBCHEM_PHARMACOPHORE_FEATURES>
4
1 2 donor
1 3 acceptor
6 1 4 5 8 11 12 rings
6 4 5 6 7 9 10 rings

> <PUBCHEM_HEAVY_ATOM_COUNT>
12

> <PUBCHEM_ATOM_DEF_STEREO_COUNT>
0

> <PUBCHEM_ATOM_UDEF_STEREO_COUNT>
0

> <PUBCHEM_BOND_DEF_STEREO_COUNT>
0

> <PUBCHEM_BOND_UDEF_STEREO_COUNT>
0

> <PUBCHEM_ISOTOPIC_ATOM_COUNT>
0

> <PUBCHEM_COMPONENT_COUNT>
1

> <PUBCHEM_CACTVS_TAUTO_COUNT>
3

> <PUBCHEM_CONFORMER_ID>
0050969200000001

> <PUBCHEM_MMFF94_ENERGY>
36.5695

> <PUBCHEM_FEATURE_SELFOVERLAP>
20.325

> <PUBCHEM_SHAPE_FINGERPRINT>
10608611 8 18410853265400230824
12491281 212 18341906159797765225
12932764 1 17489021668711251274
13380535 21 18410587179296486574
13380535 76 18410570686616925094
13897977 150 18411133645292019933
14325111 11 18410573993741463680
14897335 6 18411412908307637255
15219456 202 18411987952836437378
15775835 57 18410859862490882121
16945 1 18266741277117059078
17844478 74 18114476625273737011
20871998 184 18128542746094871599
21040471 1 18410574015295525382
21501502 16 18410568491893892102
23235685 24 18410568487593500652
23402655 69 18270387314290106925
23463225 33 18334571326746099714
23552423 10 18333450962582791542
23559900 14 18272656775378701532
2748010 2 18410860962007940718
528886 8 18411132545711638594
53812653 166 18343015623044256952
63268167 104 18412830157273499041
6333449 129 18340766039285782223
7364860 26 18270117894996750614

> <PUBCHEM_SHAPE_MULTIPOLES>
229.35
4.8
1.75
0.59
0.06
0.32
0
-1.55
0
0.06
0
-0.01
0.03
0

> <PUBCHEM_SHAPE_SELFOVERLAP>
502.286

> <PUBCHEM_SHAPE_VOLUME>
124

> <PUBCHEM_COORDINATE_TYPE>
2
5
10

$$$$
